
This file of echoed input was generated by OpenFAST on 03-Jul-2025 at 00:42:59.

Data from OpenFAST primary input file ".\WP_5.0MW.fst":

------- OpenFAST v4.1.0 INPUT FILE -------------------------------------------
               FTitle         - File Header: File Description (line 2)
  "WindPACT 5.0 MW Baseline Wind Turbine for OpenFAST."
---------------------- SIMULATION CONTROL --------------------------------------
            T  Echo           - Echo input data to <RootName>.ech (flag)
               AbortLevel     - Error level when simulation should abort (string)
  "FATAL"
   6.0000E+02  TMax           - Total run time (s)
   5.0000E-03  DT             - Recommended module time step (s)
            1  InterpOrder    - Interpolation order for inputs and outputs {0=nearest neighbor ,1=linear, 2=quadratic} (-)
            0  NumCrctn       - Number of corrections{0=explicit calculation, i.e., no corrections} (-)
   9.9999E+04  DT_UJac        - Time between calls to get Jacobians (s)
   0.0000E+00  UJacSclFact    - Scaling factor used in Jacobians (-)
1             OutFileFmt      - Format for tabular output file(s) (1: text file [<RootName>.out], 2: binary file [<RootName>.outb], 3: both)
