
This summary file was generated by HydroDyn  on 03-Jul-2025 at 09:09:16.




Strip-Theory Volume Calculations(m^3)
-------------------------------------
  Structure Volume     :    8.30358E+02
  Submerged Volume     :    6.61151E+02
  Marine Growth Volume :    1.63794E+02
  Ballasted Volume     :    1.99574E+02
              NOTE: Structure, Submerged and Marine Growth volumes are based on members not modelled with WAMIT
                      Ballasted volume is computed from all members which are marked as filled in the HydroDyn input file, regardless of PropPot flag



Total Buoyancy loads summed about ( 0.0, 0.0, 0.0 )
---------------------------------------------------
                                BuoyFxi               BuoyFyi               BuoyFzi               BuoyMxi               BuoyMyi               BuoyMzi 
                                  (N)                   (N)                   (N)                  (N-m)                 (N-m)                 (N-m)  
 External:                  2.270099E-02         -8.147799E-02         -1.984838E+05          4.514477E-01         -4.226458E-01         -9.313226E-03
 Internal:                  0.000000E+00         -3.725290E-03          4.072079E+06          1.065564E-02          1.065200E-02          0.000000E+00
 Total   :                  2.270099E-02         -8.520328E-02          3.873595E+06          4.621033E-01         -4.119938E-01         -9.313226E-03
              NOTE: External buoyancy is based on members not modelled with WAMIT
                      Internal buoyancy is computed from all members which are marked as filled in the HydroDyn input file, regardless of PropPot flag
                    Total buoyancy does not include WAMIT-modelled buoyancy contribution



Weight loads about ( 0.0, 0.0, 0.0 )
------------------------------------
                                 MGFxi                 MGFyi                 MGFzi                 MGMxi                 MGMyi                 MGMzi  
                                  (N)                   (N)                   (N)                  (N-m)                 (N-m)                 (N-m)  
 Marine Growth:             0.000000E+00          0.000000E+00         -1.757760E+06         -2.217293E-01          6.733928E-02          0.000000E+00



Nodes (first [  64 ] are joints, remainder are internal nodes)


   i      MbrIndx      Nxi         Nyi         Nzi        Shape          R          SA          SB          t          tMG        MGDens     PropPot    FilledFlag  FilledMass      Cd          CdA         CdB         Ca          CaA         CaB         Cp          Cb         AxCd        AxCa        AxCp        JAxCd       JAxCa       JAxCp     JAxFDMod   JAxVnCOff   JAxFDLoFSc
  (-)       (-)         (m)         (m)         (m)         (-)         (m)         (m)         (m)        (m)         (m)       (kg/m^3)       (-)         (-)        (kg)         (-)         (-)         (-)         (-)         (-)         (-)        (-)         (-)          (-)         (-)         (-)         (-)         (-)         (-)         (-)         (-)         (-)   
     1       -          6.0000      6.0000    -45.5000       -           -           -           -           -       0.000E+00   0.000E+00       -           -           -           -           -           -           -           -           -           -           -           -           -           -       0.000E+00   1.000E+00   1.000E+00          0   0.000E+00   1.000E+00
     2       -          6.0000      6.0000    -45.0000       -           -           -           -           -       0.000E+00   0.000E+00       -           -           -           -           -           -           -           -           -           -           -           -           -           -       0.000E+00   1.000E+00   1.000E+00          0   0.000E+00   1.000E+00
     3       -          5.9670      5.9670    -44.0010       -           -           -           -           -       0.000E+00   0.000E+00       -           -           -           -           -           -           -           -           -           -           -           -           -           -       0.000E+00   1.000E+00   1.000E+00          0   0.000E+00   1.000E+00
     4       -          5.9390      5.9390    -43.1270       -           -           -           -           -       0.000E+00   0.000E+00       -           -           -           -           -           -           -           -           -           -           -           -           -           -       0.000E+00   1.000E+00   1.000E+00          0   0.000E+00   1.000E+00
     5       -          5.3330      5.3330    -24.6140       -           -           -           -           -       1.000E-01   1.100E+03       -           -           -           -           -           -           -           -           -           -           -           -           -           -       0.000E+00   1.000E+00   1.000E+00          0   0.000E+00   1.000E+00
     6       -         -6.0000      6.0000    -45.5000       -           -           -           -           -       0.000E+00   0.000E+00       -           -           -           -           -           -           -           -           -           -           -           -           -           -       0.000E+00   1.000E+00   1.000E+00          0   0.000E+00   1.000E+00
     7       -         -6.0000      6.0000    -45.0000       -           -           -           -           -       0.000E+00   0.000E+00       -           -           -           -           -           -           -           -           -           -           -           -           -           -       0.000E+00   1.000E+00   1.000E+00          0   0.000E+00   1.000E+00
     8       -         -5.9670      5.9670    -44.0010       -           -           -           -           -       0.000E+00   0.000E+00       -           -           -           -           -           -           -           -           -           -           -           -           -           -       0.000E+00   1.000E+00   1.000E+00          0   0.000E+00   1.000E+00
     9       -         -5.9390      5.9390    -43.1270       -           -           -           -           -       0.000E+00   0.000E+00       -           -           -           -           -           -           -           -           -           -           -           -           -           -       0.000E+00   1.000E+00   1.000E+00          0   0.000E+00   1.000E+00
    10       -         -5.3330      5.3330    -24.6140       -           -           -           -           -       1.000E-01   1.100E+03       -           -           -           -           -           -           -           -           -           -           -           -           -           -       0.000E+00   1.000E+00   1.000E+00          0   0.000E+00   1.000E+00
    11       -         -6.0000     -6.0000    -45.5000       -           -           -           -           -       0.000E+00   0.000E+00       -           -           -           -           -           -           -           -           -           -           -           -           -           -       0.000E+00   1.000E+00   1.000E+00          0   0.000E+00   1.000E+00
    12       -         -6.0000     -6.0000    -45.0000       -           -           -           -           -       0.000E+00   0.000E+00       -           -           -           -           -           -           -           -           -           -           -           -           -           -       0.000E+00   1.000E+00   1.000E+00          0   0.000E+00   1.000E+00
    13       -         -5.9670     -5.9670    -44.0010       -           -           -           -           -       0.000E+00   0.000E+00       -           -           -           -           -           -           -           -           -           -           -           -           -           -       0.000E+00   1.000E+00   1.000E+00          0   0.000E+00   1.000E+00
    14       -         -5.9390     -5.9390    -43.1270       -           -           -           -           -       0.000E+00   0.000E+00       -           -           -           -           -           -           -           -           -           -           -           -           -           -       0.000E+00   1.000E+00   1.000E+00          0   0.000E+00   1.000E+00
    15       -         -5.3330     -5.3330    -24.6140       -           -           -           -           -       1.000E-01   1.100E+03       -           -           -           -           -           -           -           -           -           -           -           -           -           -       0.000E+00   1.000E+00   1.000E+00          0   0.000E+00   1.000E+00
    16       -          6.0000     -6.0000    -45.5000       -           -           -           -           -       0.000E+00   0.000E+00       -           -           -           -           -           -           -           -           -           -           -           -           -           -       0.000E+00   1.000E+00   1.000E+00          0   0.000E+00   1.000E+00
    17       -          6.0000     -6.0000    -45.0000       -           -           -           -           -       0.000E+00   0.000E+00       -           -           -           -           -           -           -           -           -           -           -           -           -           -       0.000E+00   1.000E+00   1.000E+00          0   0.000E+00   1.000E+00
    18       -          5.9670     -5.9670    -44.0010       -           -           -           -           -       0.000E+00   0.000E+00       -           -           -           -           -           -           -           -           -           -           -           -           -           -       0.000E+00   1.000E+00   1.000E+00          0   0.000E+00   1.000E+00
    19       -          5.9390     -5.9390    -43.1270       -           -           -           -           -       0.000E+00   0.000E+00       -           -           -           -           -           -           -           -           -           -           -           -           -           -       0.000E+00   1.000E+00   1.000E+00          0   0.000E+00   1.000E+00
    20       -          5.3330     -5.3330    -24.6140       -           -           -           -           -       1.000E-01   1.100E+03       -           -           -           -           -           -           -           -           -           -           -           -           -           -       0.000E+00   1.000E+00   1.000E+00          0   0.000E+00   1.000E+00
    21       -          4.8200      4.8200     -8.9220       -           -           -           -           -       1.000E-01   1.100E+03       -           -           -           -           -           -           -           -           -           -           -           -           -           -       0.000E+00   1.000E+00   1.000E+00          0   0.000E+00   1.000E+00
    22       -          4.3850      4.3850      4.3780       -           -           -           -           -       0.000E+00   0.000E+00       -           -           -           -           -           -           -           -           -           -           -           -           -           -       0.000E+00   1.000E+00   1.000E+00          0   0.000E+00   1.000E+00
    23       -          4.0160      4.0160     15.6510       -           -           -           -           -       0.000E+00   0.000E+00       -           -           -           -           -           -           -           -           -           -           -           -           -           -       0.000E+00   1.000E+00   1.000E+00          0   0.000E+00   1.000E+00
    24       -          4.0000      4.0000     16.1500       -           -           -           -           -       0.000E+00   0.000E+00       -           -           -           -           -           -           -           -           -           -           -           -           -           -       0.000E+00   1.000E+00   1.000E+00          0   0.000E+00   1.000E+00
    25       -         -4.8200      4.8200     -8.9220       -           -           -           -           -       1.000E-01   1.100E+03       -           -           -           -           -           -           -           -           -           -           -           -           -           -       0.000E+00   1.000E+00   1.000E+00          0   0.000E+00   1.000E+00
    26       -         -4.3850      4.3850      4.3780       -           -           -           -           -       0.000E+00   0.000E+00       -           -           -           -           -           -           -           -           -           -           -           -           -           -       0.000E+00   1.000E+00   1.000E+00          0   0.000E+00   1.000E+00
    27       -         -4.0160      4.0160     15.6510       -           -           -           -           -       0.000E+00   0.000E+00       -           -           -           -           -           -           -           -           -           -           -           -           -           -       0.000E+00   1.000E+00   1.000E+00          0   0.000E+00   1.000E+00
    28       -         -4.0000      4.0000     16.1500       -           -           -           -           -       0.000E+00   0.000E+00       -           -           -           -           -           -           -           -           -           -           -           -           -           -       0.000E+00   1.000E+00   1.000E+00          0   0.000E+00   1.000E+00
    29       -         -4.8200     -4.8200     -8.9220       -           -           -           -           -       1.000E-01   1.100E+03       -           -           -           -           -           -           -           -           -           -           -           -           -           -       0.000E+00   1.000E+00   1.000E+00          0   0.000E+00   1.000E+00
    30       -         -4.3850     -4.3850      4.3780       -           -           -           -           -       0.000E+00   0.000E+00       -           -           -           -           -           -           -           -           -           -           -           -           -           -       0.000E+00   1.000E+00   1.000E+00          0   0.000E+00   1.000E+00
    31       -         -4.0160     -4.0160     15.6510       -           -           -           -           -       0.000E+00   0.000E+00       -           -           -           -           -           -           -           -           -           -           -           -           -           -       0.000E+00   1.000E+00   1.000E+00          0   0.000E+00   1.000E+00
    32       -         -4.0000     -4.0000     16.1500       -           -           -           -           -       0.000E+00   0.000E+00       -           -           -           -           -           -           -           -           -           -           -           -           -           -       0.000E+00   1.000E+00   1.000E+00          0   0.000E+00   1.000E+00
    33       -          4.8200     -4.8200     -8.9220       -           -           -           -           -       1.000E-01   1.100E+03       -           -           -           -           -           -           -           -           -           -           -           -           -           -       0.000E+00   1.000E+00   1.000E+00          0   0.000E+00   1.000E+00
    34       -          4.3850     -4.3850      4.3780       -           -           -           -           -       0.000E+00   0.000E+00       -           -           -           -           -           -           -           -           -           -           -           -           -           -       0.000E+00   1.000E+00   1.000E+00          0   0.000E+00   1.000E+00
    35       -          4.0160     -4.0160     15.6510       -           -           -           -           -       0.000E+00   0.000E+00       -           -           -           -           -           -           -           -           -           -           -           -           -           -       0.000E+00   1.000E+00   1.000E+00          0   0.000E+00   1.000E+00
    36       -          4.0000     -4.0000     16.1500       -           -           -           -           -       0.000E+00   0.000E+00       -           -           -           -           -           -           -           -           -           -           -           -           -           -       0.000E+00   1.000E+00   1.000E+00          0   0.000E+00   1.000E+00
    37       -          5.6200      0.0000    -33.3730       -           -           -           -           -       1.000E-01   1.100E+03       -           -           -           -           -           -           -           -           -           -           -           -           -           -       0.000E+00   1.000E+00   1.000E+00          0   0.000E+00   1.000E+00
    38       -         -5.6200      0.0000    -33.3730       -           -           -           -           -       1.000E-01   1.100E+03       -           -           -           -           -           -           -           -           -           -           -           -           -           -       0.000E+00   1.000E+00   1.000E+00          0   0.000E+00   1.000E+00
    39       -          0.0000      5.6200    -33.3730       -           -           -           -           -       1.000E-01   1.100E+03       -           -           -           -           -           -           -           -           -           -           -           -           -           -       0.000E+00   1.000E+00   1.000E+00          0   0.000E+00   1.000E+00
    40       -          0.0000     -5.6200    -33.3730       -           -           -           -           -       1.000E-01   1.100E+03       -           -           -           -           -           -           -           -           -           -           -           -           -           -       0.000E+00   1.000E+00   1.000E+00          0   0.000E+00   1.000E+00
    41       -          5.0640      0.0000    -16.3710       -           -           -           -           -       1.000E-01   1.100E+03       -           -           -           -           -           -           -           -           -           -           -           -           -           -       0.000E+00   1.000E+00   1.000E+00          0   0.000E+00   1.000E+00
    42       -         -5.0640      0.0000    -16.3710       -           -           -           -           -       1.000E-01   1.100E+03       -           -           -           -           -           -           -           -           -           -           -           -           -           -       0.000E+00   1.000E+00   1.000E+00          0   0.000E+00   1.000E+00
    43       -          0.0000      5.0640    -16.3710       -           -           -           -           -       1.000E-01   1.100E+03       -           -           -           -           -           -           -           -           -           -           -           -           -           -       0.000E+00   1.000E+00   1.000E+00          0   0.000E+00   1.000E+00
    44       -          0.0000     -5.0640    -16.3710       -           -           -           -           -       1.000E-01   1.100E+03       -           -           -           -           -           -           -           -           -           -           -           -           -           -       0.000E+00   1.000E+00   1.000E+00          0   0.000E+00   1.000E+00
    45       -          4.5920      0.0000     -1.9580       -           -           -           -           -       0.000E+00   0.000E+00       -           -           -           -           -           -           -           -           -           -           -           -           -           -       0.000E+00   1.000E+00   1.000E+00          0   0.000E+00   1.000E+00
    46       -         -4.5920      0.0000     -1.9580       -           -           -           -           -       0.000E+00   0.000E+00       -           -           -           -           -           -           -           -           -           -           -           -           -           -       0.000E+00   1.000E+00   1.000E+00          0   0.000E+00   1.000E+00
    47       -          0.0000      4.5920     -1.9580       -           -           -           -           -       0.000E+00   0.000E+00       -           -           -           -           -           -           -           -           -           -           -           -           -           -       0.000E+00   1.000E+00   1.000E+00          0   0.000E+00   1.000E+00
    48       -          0.0000     -4.5920     -1.9580       -           -           -           -           -       0.000E+00   0.000E+00       -           -           -           -           -           -           -           -           -           -           -           -           -           -       0.000E+00   1.000E+00   1.000E+00          0   0.000E+00   1.000E+00
    49       -          4.1930      0.0000     10.2620       -           -           -           -           -       0.000E+00   0.000E+00       -           -           -           -           -           -           -           -           -           -           -           -           -           -       0.000E+00   1.000E+00   1.000E+00          0   0.000E+00   1.000E+00
    50       -         -4.1930      0.0000     10.2620       -           -           -           -           -       0.000E+00   0.000E+00       -           -           -           -           -           -           -           -           -           -           -           -           -           -       0.000E+00   1.000E+00   1.000E+00          0   0.000E+00   1.000E+00
    51       -          0.0000      4.1930     10.2620       -           -           -           -           -       0.000E+00   0.000E+00       -           -           -           -           -           -           -           -           -           -           -           -           -           -       0.000E+00   1.000E+00   1.000E+00          0   0.000E+00   1.000E+00
    52       -          0.0000     -4.1930     10.2620       -           -           -           -           -       0.000E+00   0.000E+00       -           -           -           -           -           -           -           -           -           -           -           -           -           -       0.000E+00   1.000E+00   1.000E+00          0   0.000E+00   1.000E+00
    53       -          4.0000      4.0000     20.1500       -           -           -           -           -       0.000E+00   0.000E+00       -           -           -           -           -           -           -           -           -           -           -           -           -           -       0.000E+00   1.000E+00   1.000E+00          0   0.000E+00   1.000E+00
    54       -         -4.0000      4.0000     20.1500       -           -           -           -           -       0.000E+00   0.000E+00       -           -           -           -           -           -           -           -           -           -           -           -           -           -       0.000E+00   1.000E+00   1.000E+00          0   0.000E+00   1.000E+00
    55       -          4.0000     -4.0000     20.1500       -           -           -           -           -       0.000E+00   0.000E+00       -           -           -           -           -           -           -           -           -           -           -           -           -           -       0.000E+00   1.000E+00   1.000E+00          0   0.000E+00   1.000E+00
    56       -         -4.0000     -4.0000     20.1500       -           -           -           -           -       0.000E+00   0.000E+00       -           -           -           -           -           -           -           -           -           -           -           -           -           -       0.000E+00   1.000E+00   1.000E+00          0   0.000E+00   1.000E+00
    57       -          6.0000     -6.0000    -49.5000       -           -           -           -           -       0.000E+00   0.000E+00       -           -           -           -           -           -           -           -           -           -           -           -           -           -       0.000E+00   1.000E+00   1.000E+00          0   0.000E+00   1.000E+00
    58       -          6.0000      6.0000    -49.5000       -           -           -           -           -       0.000E+00   0.000E+00       -           -           -           -           -           -           -           -           -           -           -           -           -           -       0.000E+00   1.000E+00   1.000E+00          0   0.000E+00   1.000E+00
    59       -         -6.0000     -6.0000    -49.5000       -           -           -           -           -       0.000E+00   0.000E+00       -           -           -           -           -           -           -           -           -           -           -           -           -           -       0.000E+00   1.000E+00   1.000E+00          0   0.000E+00   1.000E+00
    60       -         -6.0000      6.0000    -49.5000       -           -           -           -           -       0.000E+00   0.000E+00       -           -           -           -           -           -           -           -           -           -           -           -           -           -       0.000E+00   1.000E+00   1.000E+00          0   0.000E+00   1.000E+00
    61       -          6.0000     -6.0000    -50.0010       -           -           -           -           -       0.000E+00   0.000E+00       -           -           -           -           -           -           -           -           -           -           -           -           -           -       0.000E+00   1.000E+00   1.000E+00          0   0.000E+00   1.000E+00
    62       -          6.0000      6.0000    -50.0010       -           -           -           -           -       0.000E+00   0.000E+00       -           -           -           -           -           -           -           -           -           -           -           -           -           -       0.000E+00   1.000E+00   1.000E+00          0   0.000E+00   1.000E+00
    63       -         -6.0000     -6.0000    -50.0010       -           -           -           -           -       0.000E+00   0.000E+00       -           -           -           -           -           -           -           -           -           -           -           -           -           -       0.000E+00   1.000E+00   1.000E+00          0   0.000E+00   1.000E+00
    64       -         -6.0000      6.0000    -50.0010       -           -           -           -           -       0.000E+00   0.000E+00       -           -           -           -           -           -           -           -           -           -           -           -           -           -       0.000E+00   1.000E+00   1.000E+00          0   0.000E+00   1.000E+00
    65           2      5.9835      5.9835    -44.5005      C        6.000E-01      -           -        5.000E-02   0.000E+00   0.000E+00           F           T   4.871E+02   1.000E+00      -           -        1.000E+00      -           -        1.000E+00   1.000E+00   1.000E+00   1.000E+00   1.000E+00         -           -           -           -           -           -  
    66           4      5.9071      5.9071    -42.1526      C        6.000E-01      -           -        5.000E-02   0.000E+00   0.000E+00           F           T   9.501E+02   1.000E+00      -           -        1.000E+00      -           -        1.000E+00   1.000E+00   1.000E+00   1.000E+00   1.000E+00         -           -           -           -           -           -  
    67           4      5.8752      5.8752    -41.1783      C        6.000E-01      -           -        5.000E-02   0.000E+00   0.000E+00           F           T   9.501E+02   1.000E+00      -           -        1.000E+00      -           -        1.000E+00   1.000E+00   1.000E+00   1.000E+00   1.000E+00         -           -           -           -           -           -  
    68           4      5.8433      5.8433    -40.2039      C        6.000E-01      -           -        5.000E-02   0.000E+00   0.000E+00           F           T   9.501E+02   1.000E+00      -           -        1.000E+00      -           -        1.000E+00   1.000E+00   1.000E+00   1.000E+00   1.000E+00         -           -           -           -           -           -  
    69           4      5.8114      5.8114    -39.2295      C        6.000E-01      -           -        5.000E-02   1.000E-01   1.100E+03           F           T   9.501E+02   1.000E+00      -           -        1.000E+00      -           -        1.000E+00   1.000E+00   1.000E+00   1.000E+00   1.000E+00         -           -           -           -           -           -  
    70           4      5.7795      5.7795    -38.2552      C        6.000E-01      -           -        5.000E-02   1.000E-01   1.100E+03           F           T   9.501E+02   1.000E+00      -           -        1.000E+00      -           -        1.000E+00   1.000E+00   1.000E+00   1.000E+00   1.000E+00         -           -           -           -           -           -  
    71           4      5.7476      5.7476    -37.2808      C        6.000E-01      -           -        5.000E-02   1.000E-01   1.100E+03           F           T   9.501E+02   1.000E+00      -           -        1.000E+00      -           -        1.000E+00   1.000E+00   1.000E+00   1.000E+00   1.000E+00         -           -           -           -           -           -  
    72           4      5.7157      5.7157    -36.3064      C        6.000E-01      -           -        5.000E-02   1.000E-01   1.100E+03           F           T   9.501E+02   1.000E+00      -           -        1.000E+00      -           -        1.000E+00   1.000E+00   1.000E+00   1.000E+00   1.000E+00         -           -           -           -           -           -  
    73           4      5.6838      5.6838    -35.3321      C        6.000E-01      -           -        5.000E-02   1.000E-01   1.100E+03           F           T   9.501E+02   1.000E+00      -           -        1.000E+00      -           -        1.000E+00   1.000E+00   1.000E+00   1.000E+00   1.000E+00         -           -           -           -           -           -  
    74           4      5.6519      5.6519    -34.3577      C        6.000E-01      -           -        5.000E-02   1.000E-01   1.100E+03           F           T   9.501E+02   1.000E+00      -           -        1.000E+00      -           -        1.000E+00   1.000E+00   1.000E+00   1.000E+00   1.000E+00         -           -           -           -           -           -  
    75           4      5.6201      5.6201    -33.3833      C        6.000E-01      -           -        5.000E-02   1.000E-01   1.100E+03           F           T   9.501E+02   1.000E+00      -           -        1.000E+00      -           -        1.000E+00   1.000E+00   1.000E+00   1.000E+00   1.000E+00         -           -           -           -           -           -  
    76           4      5.5882      5.5882    -32.4089      C        6.000E-01      -           -        5.000E-02   1.000E-01   1.100E+03           F           T   9.501E+02   1.000E+00      -           -        1.000E+00      -           -        1.000E+00   1.000E+00   1.000E+00   1.000E+00   1.000E+00         -           -           -           -           -           -  
    77           4      5.5563      5.5563    -31.4346      C        6.000E-01      -           -        5.000E-02   1.000E-01   1.100E+03           F           T   9.501E+02   1.000E+00      -           -        1.000E+00      -           -        1.000E+00   1.000E+00   1.000E+00   1.000E+00   1.000E+00         -           -           -           -           -           -  
    78           4      5.5244      5.5244    -30.4602      C        6.000E-01      -           -        5.000E-02   1.000E-01   1.100E+03           F           T   9.501E+02   1.000E+00      -           -        1.000E+00      -           -        1.000E+00   1.000E+00   1.000E+00   1.000E+00   1.000E+00         -           -           -           -           -           -  
    79           4      5.4925      5.4925    -29.4858      C        6.000E-01      -           -        5.000E-02   1.000E-01   1.100E+03           F           T   9.501E+02   1.000E+00      -           -        1.000E+00      -           -        1.000E+00   1.000E+00   1.000E+00   1.000E+00   1.000E+00         -           -           -           -           -           -  
    80           4      5.4606      5.4606    -28.5115      C        6.000E-01      -           -        5.000E-02   1.000E-01   1.100E+03           F           T   9.501E+02   1.000E+00      -           -        1.000E+00      -           -        1.000E+00   1.000E+00   1.000E+00   1.000E+00   1.000E+00         -           -           -           -           -           -  
    81           4      5.4287      5.4287    -27.5371      C        6.000E-01      -           -        5.000E-02   1.000E-01   1.100E+03           F           T   9.501E+02   1.000E+00      -           -        1.000E+00      -           -        1.000E+00   1.000E+00   1.000E+00   1.000E+00   1.000E+00         -           -           -           -           -           -  
    82           4      5.3968      5.3968    -26.5627      C        6.000E-01      -           -        5.000E-02   1.000E-01   1.100E+03           F           T   9.501E+02   1.000E+00      -           -        1.000E+00      -           -        1.000E+00   1.000E+00   1.000E+00   1.000E+00   1.000E+00         -           -           -           -           -           -  
    83           4      5.3649      5.3649    -25.5884      C        6.000E-01      -           -        5.000E-02   1.000E-01   1.100E+03           F           T   9.501E+02   1.000E+00      -           -        1.000E+00      -           -        1.000E+00   1.000E+00   1.000E+00   1.000E+00   1.000E+00         -           -           -           -           -           -  
    84           6     -5.9835      5.9835    -44.5005      C        6.000E-01      -           -        5.000E-02   0.000E+00   0.000E+00           F           T   4.871E+02   1.000E+00      -           -        1.000E+00      -           -        1.000E+00   1.000E+00   1.000E+00   1.000E+00   1.000E+00         -           -           -           -           -           -  
    85           8     -5.9071      5.9071    -42.1526      C        6.000E-01      -           -        5.000E-02   0.000E+00   0.000E+00           F           T   9.501E+02   1.000E+00      -           -        1.000E+00      -           -        1.000E+00   1.000E+00   1.000E+00   1.000E+00   1.000E+00         -           -           -           -           -           -  
    86           8     -5.8752      5.8752    -41.1783      C        6.000E-01      -           -        5.000E-02   0.000E+00   0.000E+00           F           T   9.501E+02   1.000E+00      -           -        1.000E+00      -           -        1.000E+00   1.000E+00   1.000E+00   1.000E+00   1.000E+00         -           -           -           -           -           -  
    87           8     -5.8433      5.8433    -40.2039      C        6.000E-01      -           -        5.000E-02   0.000E+00   0.000E+00           F           T   9.501E+02   1.000E+00      -           -        1.000E+00      -           -        1.000E+00   1.000E+00   1.000E+00   1.000E+00   1.000E+00         -           -           -           -           -           -  
    88           8     -5.8114      5.8114    -39.2295      C        6.000E-01      -           -        5.000E-02   1.000E-01   1.100E+03           F           T   9.501E+02   1.000E+00      -           -        1.000E+00      -           -        1.000E+00   1.000E+00   1.000E+00   1.000E+00   1.000E+00         -           -           -           -           -           -  
    89           8     -5.7795      5.7795    -38.2552      C        6.000E-01      -           -        5.000E-02   1.000E-01   1.100E+03           F           T   9.501E+02   1.000E+00      -           -        1.000E+00      -           -        1.000E+00   1.000E+00   1.000E+00   1.000E+00   1.000E+00         -           -           -           -           -           -  
    90           8     -5.7476      5.7476    -37.2808      C        6.000E-01      -           -        5.000E-02   1.000E-01   1.100E+03           F           T   9.501E+02   1.000E+00      -           -        1.000E+00      -           -        1.000E+00   1.000E+00   1.000E+00   1.000E+00   1.000E+00         -           -           -           -           -           -  
    91           8     -5.7157      5.7157    -36.3064      C        6.000E-01      -           -        5.000E-02   1.000E-01   1.100E+03           F           T   9.501E+02   1.000E+00      -           -        1.000E+00      -           -        1.000E+00   1.000E+00   1.000E+00   1.000E+00   1.000E+00         -           -           -           -           -           -  
    92           8     -5.6838      5.6838    -35.3321      C        6.000E-01      -           -        5.000E-02   1.000E-01   1.100E+03           F           T   9.501E+02   1.000E+00      -           -        1.000E+00      -           -        1.000E+00   1.000E+00   1.000E+00   1.000E+00   1.000E+00         -           -           -           -           -           -  
    93           8     -5.6519      5.6519    -34.3577      C        6.000E-01      -           -        5.000E-02   1.000E-01   1.100E+03           F           T   9.501E+02   1.000E+00      -           -        1.000E+00      -           -        1.000E+00   1.000E+00   1.000E+00   1.000E+00   1.000E+00         -           -           -           -           -           -  
    94           8     -5.6201      5.6201    -33.3833      C        6.000E-01      -           -        5.000E-02   1.000E-01   1.100E+03           F           T   9.501E+02   1.000E+00      -           -        1.000E+00      -           -        1.000E+00   1.000E+00   1.000E+00   1.000E+00   1.000E+00         -           -           -           -           -           -  
    95           8     -5.5882      5.5882    -32.4089      C        6.000E-01      -           -        5.000E-02   1.000E-01   1.100E+03           F           T   9.501E+02   1.000E+00      -           -        1.000E+00      -           -        1.000E+00   1.000E+00   1.000E+00   1.000E+00   1.000E+00         -           -           -           -           -           -  
    96           8     -5.5563      5.5563    -31.4346      C        6.000E-01      -           -        5.000E-02   1.000E-01   1.100E+03           F           T   9.501E+02   1.000E+00      -           -        1.000E+00      -           -        1.000E+00   1.000E+00   1.000E+00   1.000E+00   1.000E+00         -           -           -           -           -           -  
    97           8     -5.5244      5.5244    -30.4602      C        6.000E-01      -           -        5.000E-02   1.000E-01   1.100E+03           F           T   9.501E+02   1.000E+00      -           -        1.000E+00      -           -        1.000E+00   1.000E+00   1.000E+00   1.000E+00   1.000E+00         -           -           -           -           -           -  
    98           8     -5.4925      5.4925    -29.4858      C        6.000E-01      -           -        5.000E-02   1.000E-01   1.100E+03           F           T   9.501E+02   1.000E+00      -           -        1.000E+00      -           -        1.000E+00   1.000E+00   1.000E+00   1.000E+00   1.000E+00         -           -           -           -           -           -  
    99           8     -5.4606      5.4606    -28.5115      C        6.000E-01      -           -        5.000E-02   1.000E-01   1.100E+03           F           T   9.501E+02   1.000E+00      -           -        1.000E+00      -           -        1.000E+00   1.000E+00   1.000E+00   1.000E+00   1.000E+00         -           -           -           -           -           -  
   100           8     -5.4287      5.4287    -27.5371      C        6.000E-01      -           -        5.000E-02   1.000E-01   1.100E+03           F           T   9.501E+02   1.000E+00      -           -        1.000E+00      -           -        1.000E+00   1.000E+00   1.000E+00   1.000E+00   1.000E+00         -           -           -           -           -           -  
   101           8     -5.3968      5.3968    -26.5627      C        6.000E-01      -           -        5.000E-02   1.000E-01   1.100E+03           F           T   9.501E+02   1.000E+00      -           -        1.000E+00      -           -        1.000E+00   1.000E+00   1.000E+00   1.000E+00   1.000E+00         -           -           -           -           -           -  
   102           8     -5.3649      5.3649    -25.5884      C        6.000E-01      -           -        5.000E-02   1.000E-01   1.100E+03           F           T   9.501E+02   1.000E+00      -           -        1.000E+00      -           -        1.000E+00   1.000E+00   1.000E+00   1.000E+00   1.000E+00         -           -           -           -           -           -  
   103          10     -5.9835     -5.9835    -44.5005      C        6.000E-01      -           -        5.000E-02   0.000E+00   0.000E+00           F           T   4.871E+02   1.000E+00      -           -        1.000E+00      -           -        1.000E+00   1.000E+00   1.000E+00   1.000E+00   1.000E+00         -           -           -           -           -           -  
   104          12     -5.9071     -5.9071    -42.1526      C        6.000E-01      -           -        5.000E-02   0.000E+00   0.000E+00           F           T   9.501E+02   1.000E+00      -           -        1.000E+00      -           -        1.000E+00   1.000E+00   1.000E+00   1.000E+00   1.000E+00         -           -           -           -           -           -  
   105          12     -5.8752     -5.8752    -41.1783      C        6.000E-01      -           -        5.000E-02   0.000E+00   0.000E+00           F           T   9.501E+02   1.000E+00      -           -        1.000E+00      -           -        1.000E+00   1.000E+00   1.000E+00   1.000E+00   1.000E+00         -           -           -           -           -           -  
   106          12     -5.8433     -5.8433    -40.2039      C        6.000E-01      -           -        5.000E-02   0.000E+00   0.000E+00           F           T   9.501E+02   1.000E+00      -           -        1.000E+00      -           -        1.000E+00   1.000E+00   1.000E+00   1.000E+00   1.000E+00         -           -           -           -           -           -  
   107          12     -5.8114     -5.8114    -39.2295      C        6.000E-01      -           -        5.000E-02   1.000E-01   1.100E+03           F           T   9.501E+02   1.000E+00      -           -        1.000E+00      -           -        1.000E+00   1.000E+00   1.000E+00   1.000E+00   1.000E+00         -           -           -           -           -           -  
   108          12     -5.7795     -5.7795    -38.2552      C        6.000E-01      -           -        5.000E-02   1.000E-01   1.100E+03           F           T   9.501E+02   1.000E+00      -           -        1.000E+00      -           -        1.000E+00   1.000E+00   1.000E+00   1.000E+00   1.000E+00         -           -           -           -           -           -  
   109          12     -5.7476     -5.7476    -37.2808      C        6.000E-01      -           -        5.000E-02   1.000E-01   1.100E+03           F           T   9.501E+02   1.000E+00      -           -        1.000E+00      -           -        1.000E+00   1.000E+00   1.000E+00   1.000E+00   1.000E+00         -           -           -           -           -           -  
   110          12     -5.7157     -5.7157    -36.3064      C        6.000E-01      -           -        5.000E-02   1.000E-01   1.100E+03           F           T   9.501E+02   1.000E+00      -           -        1.000E+00      -           -        1.000E+00   1.000E+00   1.000E+00   1.000E+00   1.000E+00         -           -           -           -           -           -  
   111          12     -5.6838     -5.6838    -35.3321      C        6.000E-01      -           -        5.000E-02   1.000E-01   1.100E+03           F           T   9.501E+02   1.000E+00      -           -        1.000E+00      -           -        1.000E+00   1.000E+00   1.000E+00   1.000E+00   1.000E+00         -           -           -           -           -           -  
   112          12     -5.6519     -5.6519    -34.3577      C        6.000E-01      -           -        5.000E-02   1.000E-01   1.100E+03           F           T   9.501E+02   1.000E+00      -           -        1.000E+00      -           -        1.000E+00   1.000E+00   1.000E+00   1.000E+00   1.000E+00         -           -           -           -           -           -  
   113          12     -5.6201     -5.6201    -33.3833      C        6.000E-01      -           -        5.000E-02   1.000E-01   1.100E+03           F           T   9.501E+02   1.000E+00      -           -        1.000E+00      -           -        1.000E+00   1.000E+00   1.000E+00   1.000E+00   1.000E+00         -           -           -           -           -           -  
   114          12     -5.5882     -5.5882    -32.4089      C        6.000E-01      -           -        5.000E-02   1.000E-01   1.100E+03           F           T   9.501E+02   1.000E+00      -           -        1.000E+00      -           -        1.000E+00   1.000E+00   1.000E+00   1.000E+00   1.000E+00         -           -           -           -           -           -  
   115          12     -5.5563     -5.5563    -31.4346      C        6.000E-01      -           -        5.000E-02   1.000E-01   1.100E+03           F           T   9.501E+02   1.000E+00      -           -        1.000E+00      -           -        1.000E+00   1.000E+00   1.000E+00   1.000E+00   1.000E+00         -           -           -           -           -           -  
   116          12     -5.5244     -5.5244    -30.4602      C        6.000E-01      -           -        5.000E-02   1.000E-01   1.100E+03           F           T   9.501E+02   1.000E+00      -           -        1.000E+00      -           -        1.000E+00   1.000E+00   1.000E+00   1.000E+00   1.000E+00         -           -           -           -           -           -  
   117          12     -5.4925     -5.4925    -29.4858      C        6.000E-01      -           -        5.000E-02   1.000E-01   1.100E+03           F           T   9.501E+02   1.000E+00      -           -        1.000E+00      -           -        1.000E+00   1.000E+00   1.000E+00   1.000E+00   1.000E+00         -           -           -           -           -           -  
   118          12     -5.4606     -5.4606    -28.5115      C        6.000E-01      -           -        5.000E-02   1.000E-01   1.100E+03           F           T   9.501E+02   1.000E+00      -           -        1.000E+00      -           -        1.000E+00   1.000E+00   1.000E+00   1.000E+00   1.000E+00         -           -           -           -           -           -  
   119          12     -5.4287     -5.4287    -27.5371      C        6.000E-01      -           -        5.000E-02   1.000E-01   1.100E+03           F           T   9.501E+02   1.000E+00      -           -        1.000E+00      -           -        1.000E+00   1.000E+00   1.000E+00   1.000E+00   1.000E+00         -           -           -           -           -           -  
   120          12     -5.3968     -5.3968    -26.5627      C        6.000E-01      -           -        5.000E-02   1.000E-01   1.100E+03           F           T   9.501E+02   1.000E+00      -           -        1.000E+00      -           -        1.000E+00   1.000E+00   1.000E+00   1.000E+00   1.000E+00         -           -           -           -           -           -  
   121          12     -5.3649     -5.3649    -25.5884      C        6.000E-01      -           -        5.000E-02   1.000E-01   1.100E+03           F           T   9.501E+02   1.000E+00      -           -        1.000E+00      -           -        1.000E+00   1.000E+00   1.000E+00   1.000E+00   1.000E+00         -           -           -           -           -           -  
   122          14      5.9835     -5.9835    -44.5005      C        6.000E-01      -           -        5.000E-02   0.000E+00   0.000E+00           F           T   4.871E+02   1.000E+00      -           -        1.000E+00      -           -        1.000E+00   1.000E+00   1.000E+00   1.000E+00   1.000E+00         -           -           -           -           -           -  
   123          16      5.9071     -5.9071    -42.1526      C        6.000E-01      -           -        5.000E-02   0.000E+00   0.000E+00           F           T   9.501E+02   1.000E+00      -           -        1.000E+00      -           -        1.000E+00   1.000E+00   1.000E+00   1.000E+00   1.000E+00         -           -           -           -           -           -  
   124          16      5.8752     -5.8752    -41.1783      C        6.000E-01      -           -        5.000E-02   0.000E+00   0.000E+00           F           T   9.501E+02   1.000E+00      -           -        1.000E+00      -           -        1.000E+00   1.000E+00   1.000E+00   1.000E+00   1.000E+00         -           -           -           -           -           -  
   125          16      5.8433     -5.8433    -40.2039      C        6.000E-01      -           -        5.000E-02   0.000E+00   0.000E+00           F           T   9.501E+02   1.000E+00      -           -        1.000E+00      -           -        1.000E+00   1.000E+00   1.000E+00   1.000E+00   1.000E+00         -           -           -           -           -           -  
   126          16      5.8114     -5.8114    -39.2295      C        6.000E-01      -           -        5.000E-02   1.000E-01   1.100E+03           F           T   9.501E+02   1.000E+00      -           -        1.000E+00      -           -        1.000E+00   1.000E+00   1.000E+00   1.000E+00   1.000E+00         -           -           -           -           -           -  
   127          16      5.7795     -5.7795    -38.2552      C        6.000E-01      -           -        5.000E-02   1.000E-01   1.100E+03           F           T   9.501E+02   1.000E+00      -           -        1.000E+00      -           -        1.000E+00   1.000E+00   1.000E+00   1.000E+00   1.000E+00         -           -           -           -           -           -  
   128          16      5.7476     -5.7476    -37.2808      C        6.000E-01      -           -        5.000E-02   1.000E-01   1.100E+03           F           T   9.501E+02   1.000E+00      -           -        1.000E+00      -           -        1.000E+00   1.000E+00   1.000E+00   1.000E+00   1.000E+00         -           -           -           -           -           -  
   129          16      5.7157     -5.7157    -36.3064      C        6.000E-01      -           -        5.000E-02   1.000E-01   1.100E+03           F           T   9.501E+02   1.000E+00      -           -        1.000E+00      -           -        1.000E+00   1.000E+00   1.000E+00   1.000E+00   1.000E+00         -           -           -           -           -           -  
   130          16      5.6838     -5.6838    -35.3321      C        6.000E-01      -           -        5.000E-02   1.000E-01   1.100E+03           F           T   9.501E+02   1.000E+00      -           -        1.000E+00      -           -        1.000E+00   1.000E+00   1.000E+00   1.000E+00   1.000E+00         -           -           -           -           -           -  
   131          16      5.6519     -5.6519    -34.3577      C        6.000E-01      -           -        5.000E-02   1.000E-01   1.100E+03           F           T   9.501E+02   1.000E+00      -           -        1.000E+00      -           -        1.000E+00   1.000E+00   1.000E+00   1.000E+00   1.000E+00         -           -           -           -           -           -  
   132          16      5.6201     -5.6201    -33.3833      C        6.000E-01      -           -        5.000E-02   1.000E-01   1.100E+03           F           T   9.501E+02   1.000E+00      -           -        1.000E+00      -           -        1.000E+00   1.000E+00   1.000E+00   1.000E+00   1.000E+00         -           -           -           -           -           -  
   133          16      5.5882     -5.5882    -32.4089      C        6.000E-01      -           -        5.000E-02   1.000E-01   1.100E+03           F           T   9.501E+02   1.000E+00      -           -        1.000E+00      -           -        1.000E+00   1.000E+00   1.000E+00   1.000E+00   1.000E+00         -           -           -           -           -           -  
   134          16      5.5563     -5.5563    -31.4346      C        6.000E-01      -           -        5.000E-02   1.000E-01   1.100E+03           F           T   9.501E+02   1.000E+00      -           -        1.000E+00      -           -        1.000E+00   1.000E+00   1.000E+00   1.000E+00   1.000E+00         -           -           -           -           -           -  
   135          16      5.5244     -5.5244    -30.4602      C        6.000E-01      -           -        5.000E-02   1.000E-01   1.100E+03           F           T   9.501E+02   1.000E+00      -           -        1.000E+00      -           -        1.000E+00   1.000E+00   1.000E+00   1.000E+00   1.000E+00         -           -           -           -           -           -  
   136          16      5.4925     -5.4925    -29.4858      C        6.000E-01      -           -        5.000E-02   1.000E-01   1.100E+03           F           T   9.501E+02   1.000E+00      -           -        1.000E+00      -           -        1.000E+00   1.000E+00   1.000E+00   1.000E+00   1.000E+00         -           -           -           -           -           -  
   137          16      5.4606     -5.4606    -28.5115      C        6.000E-01      -           -        5.000E-02   1.000E-01   1.100E+03           F           T   9.501E+02   1.000E+00      -           -        1.000E+00      -           -        1.000E+00   1.000E+00   1.000E+00   1.000E+00   1.000E+00         -           -           -           -           -           -  
   138          16      5.4287     -5.4287    -27.5371      C        6.000E-01      -           -        5.000E-02   1.000E-01   1.100E+03           F           T   9.501E+02   1.000E+00      -           -        1.000E+00      -           -        1.000E+00   1.000E+00   1.000E+00   1.000E+00   1.000E+00         -           -           -           -           -           -  
   139          16      5.3968     -5.3968    -26.5627      C        6.000E-01      -           -        5.000E-02   1.000E-01   1.100E+03           F           T   9.501E+02   1.000E+00      -           -        1.000E+00      -           -        1.000E+00   1.000E+00   1.000E+00   1.000E+00   1.000E+00         -           -           -           -           -           -  
   140          16      5.3649     -5.3649    -25.5884      C        6.000E-01      -           -        5.000E-02   1.000E-01   1.100E+03           F           T   9.501E+02   1.000E+00      -           -        1.000E+00      -           -        1.000E+00   1.000E+00   1.000E+00   1.000E+00   1.000E+00         -           -           -           -           -           -  
   141          17      5.3009      5.3009    -23.6332      C        6.000E-01      -           -        3.500E-02   1.000E-01   1.100E+03           F           T   1.009E+03   1.000E+00      -           -        1.000E+00      -           -        1.000E+00   1.000E+00   1.000E+00   1.000E+00   1.000E+00         -           -           -           -           -           -  
   142          17      5.2689      5.2689    -22.6525      C        6.000E-01      -           -        3.500E-02   1.000E-01   1.100E+03           F           T   1.009E+03   1.000E+00      -           -        1.000E+00      -           -        1.000E+00   1.000E+00   1.000E+00   1.000E+00   1.000E+00         -           -           -           -           -           -  
   143          17      5.2368      5.2368    -21.6717      C        6.000E-01      -           -        3.500E-02   1.000E-01   1.100E+03           F           T   1.009E+03   1.000E+00      -           -        1.000E+00      -           -        1.000E+00   1.000E+00   1.000E+00   1.000E+00   1.000E+00         -           -           -           -           -           -  
   144          17      5.2048      5.2048    -20.6910      C        6.000E-01      -           -        3.500E-02   1.000E-01   1.100E+03           F           T   1.009E+03   1.000E+00      -           -        1.000E+00      -           -        1.000E+00   1.000E+00   1.000E+00   1.000E+00   1.000E+00         -           -           -           -           -           -  
   145          17      5.1727      5.1727    -19.7103      C        6.000E-01      -           -        3.500E-02   1.000E-01   1.100E+03           F           T   1.009E+03   1.000E+00      -           -        1.000E+00      -           -        1.000E+00   1.000E+00   1.000E+00   1.000E+00   1.000E+00         -           -           -           -           -           -  
   146          17      5.1406      5.1406    -18.7295      C        6.000E-01      -           -        3.500E-02   1.000E-01   1.100E+03           F           T   1.009E+03   1.000E+00      -           -        1.000E+00      -           -        1.000E+00   1.000E+00   1.000E+00   1.000E+00   1.000E+00         -           -           -           -           -           -  
   147          17      5.1086      5.1086    -17.7488      C        6.000E-01      -           -        3.500E-02   1.000E-01   1.100E+03           F           T   1.009E+03   1.000E+00      -           -        1.000E+00      -           -        1.000E+00   1.000E+00   1.000E+00   1.000E+00   1.000E+00         -           -           -           -           -           -  
   148          17      5.0765      5.0765    -16.7680      C        6.000E-01      -           -        3.500E-02   1.000E-01   1.100E+03           F           T   1.009E+03   1.000E+00      -           -        1.000E+00      -           -        1.000E+00   1.000E+00   1.000E+00   1.000E+00   1.000E+00         -           -           -           -           -           -  
   149          17      5.0444      5.0444    -15.7873      C        6.000E-01      -           -        3.500E-02   1.000E-01   1.100E+03           F           T   1.009E+03   1.000E+00      -           -        1.000E+00      -           -        1.000E+00   1.000E+00   1.000E+00   1.000E+00   1.000E+00         -           -           -           -           -           -  
   150          17      5.0124      5.0124    -14.8065      C        6.000E-01      -           -        3.500E-02   1.000E-01   1.100E+03           F           T   1.009E+03   1.000E+00      -           -        1.000E+00      -           -        1.000E+00   1.000E+00   1.000E+00   1.000E+00   1.000E+00         -           -           -           -           -           -  
   151          17      4.9803      4.9803    -13.8258      C        6.000E-01      -           -        3.500E-02   1.000E-01   1.100E+03           F           T   1.009E+03   1.000E+00      -           -        1.000E+00      -           -        1.000E+00   1.000E+00   1.000E+00   1.000E+00   1.000E+00         -           -           -           -           -           -  
   152          17      4.9483      4.9483    -12.8450      C        6.000E-01      -           -        3.500E-02   1.000E-01   1.100E+03           F           T   1.009E+03   1.000E+00      -           -        1.000E+00      -           -        1.000E+00   1.000E+00   1.000E+00   1.000E+00   1.000E+00         -           -           -           -           -           -  
   153          17      4.9162      4.9162    -11.8643      C        6.000E-01      -           -        3.500E-02   1.000E-01   1.100E+03           F           T   1.009E+03   1.000E+00      -           -        1.000E+00      -           -        1.000E+00   1.000E+00   1.000E+00   1.000E+00   1.000E+00         -           -           -           -           -           -  
   154          17      4.8841      4.8841    -10.8835      C        6.000E-01      -           -        3.500E-02   1.000E-01   1.100E+03           F           T   1.009E+03   1.000E+00      -           -        1.000E+00      -           -        1.000E+00   1.000E+00   1.000E+00   1.000E+00   1.000E+00         -           -           -           -           -           -  
   155          17      4.8521      4.8521     -9.9028      C        6.000E-01      -           -        3.500E-02   1.000E-01   1.100E+03           F           T   1.009E+03   1.000E+00      -           -        1.000E+00      -           -        1.000E+00   1.000E+00   1.000E+00   1.000E+00   1.000E+00         -           -           -           -           -           -  
   156          18      4.7889      4.7889     -7.9720      C        6.000E-01      -           -        3.500E-02   1.000E-01   1.100E+03           F           T   9.776E+02   1.000E+00      -           -        1.000E+00      -           -        1.000E+00   1.000E+00   1.000E+00   1.000E+00   1.000E+00         -           -           -           -           -           -  
   157          18      4.7579      4.7579     -7.0220      C        6.000E-01      -           -        3.500E-02   1.000E-01   1.100E+03           F           T   9.776E+02   1.000E+00      -           -        1.000E+00      -           -        1.000E+00   1.000E+00   1.000E+00   1.000E+00   1.000E+00         -           -           -           -           -           -  
   158          18      4.7268      4.7268     -6.0720      C        6.000E-01      -           -        3.500E-02   1.000E-01   1.100E+03           F           T   9.776E+02   1.000E+00      -           -        1.000E+00      -           -        1.000E+00   1.000E+00   1.000E+00   1.000E+00   1.000E+00         -           -           -           -           -           -  
   159          18      4.6957      4.6957     -5.1220      C        6.000E-01      -           -        3.500E-02   1.000E-01   1.100E+03           F           T   9.776E+02   1.000E+00      -           -        1.000E+00      -           -        1.000E+00   1.000E+00   1.000E+00   1.000E+00   1.000E+00         -           -           -           -           -           -  
   160          18      4.6646      4.6646     -4.1720      C        6.000E-01      -           -        3.500E-02   1.000E-01   1.100E+03           F           T   9.776E+02   1.000E+00      -           -        1.000E+00      -           -        1.000E+00   1.000E+00   1.000E+00   1.000E+00   1.000E+00         -           -           -           -           -           -  
   161          18      4.6336      4.6336     -3.2220      C        6.000E-01      -           -        3.500E-02   1.000E-01   1.100E+03           F           T   9.776E+02   1.000E+00      -           -        1.000E+00      -           -        1.000E+00   1.000E+00   1.000E+00   1.000E+00   1.000E+00         -           -           -           -           -           -  
   162          18      4.6025      4.6025     -2.2720      C        6.000E-01      -           -        3.500E-02   1.000E-01   1.100E+03           F           T   9.776E+02   1.000E+00      -           -        1.000E+00      -           -        1.000E+00   1.000E+00   1.000E+00   1.000E+00   1.000E+00         -           -           -           -           -           -  
   163          18      4.5714      4.5714     -1.3220      C        6.000E-01      -           -        3.500E-02   0.000E+00   0.000E+00           F           T   9.776E+02   1.000E+00      -           -        1.000E+00      -           -        1.000E+00   1.000E+00   1.000E+00   1.000E+00   1.000E+00         -           -           -           -           -           -  
   164          18      4.5404      4.5404     -0.3720      C        6.000E-01      -           -        3.500E-02   0.000E+00   0.000E+00           F           T   3.824E+02   1.000E+00      -           -        1.000E+00      -           -        1.000E+00   1.000E+00   1.000E+00   1.000E+00   1.000E+00         -           -           -           -           -           -  
   165          18      4.5093      4.5093      0.5780      C        6.000E-01      -           -        3.500E-02   0.000E+00   0.000E+00           F           F   0.000E+00   1.000E+00      -           -        1.000E+00      -           -        1.000E+00   1.000E+00   1.000E+00   1.000E+00   1.000E+00         -           -           -           -           -           -  
   166          18      4.4782      4.4782      1.5280      C        6.000E-01      -           -        3.500E-02   0.000E+00   0.000E+00           F           F   0.000E+00   1.000E+00      -           -        1.000E+00      -           -        1.000E+00   1.000E+00   1.000E+00   1.000E+00   1.000E+00         -           -           -           -           -           -  
   167          18      4.4471      4.4471      2.4780      C        6.000E-01      -           -        3.500E-02   0.000E+00   0.000E+00           F           F   0.000E+00   1.000E+00      -           -        1.000E+00      -           -        1.000E+00   1.000E+00   1.000E+00   1.000E+00   1.000E+00         -           -           -           -           -           -  
   168          18      4.4161      4.4161      3.4280      C        6.000E-01      -           -        3.500E-02   0.000E+00   0.000E+00           F           F   0.000E+00   1.000E+00      -           -        1.000E+00      -           -        1.000E+00   1.000E+00   1.000E+00   1.000E+00   1.000E+00         -           -           -           -           -           -  
   169          19      4.3543      4.3543      5.3174      C        6.000E-01      -           -        3.500E-02   0.000E+00   0.000E+00           F           F   0.000E+00   1.000E+00      -           -        1.000E+00      -           -        1.000E+00   1.000E+00   1.000E+00   1.000E+00   1.000E+00         -           -           -           -           -           -  
   170          19      4.3235      4.3235      6.2568      C        6.000E-01      -           -        3.500E-02   0.000E+00   0.000E+00           F           F   0.000E+00   1.000E+00      -           -        1.000E+00      -           -        1.000E+00   1.000E+00   1.000E+00   1.000E+00   1.000E+00         -           -           -           -           -           -  
   171          19      4.2928      4.2928      7.1962      C        6.000E-01      -           -        3.500E-02   0.000E+00   0.000E+00           F           F   0.000E+00   1.000E+00      -           -        1.000E+00      -           -        1.000E+00   1.000E+00   1.000E+00   1.000E+00   1.000E+00         -           -           -           -           -           -  
   172          19      4.2620      4.2620      8.1357      C        6.000E-01      -           -        3.500E-02   0.000E+00   0.000E+00           F           F   0.000E+00   1.000E+00      -           -        1.000E+00      -           -        1.000E+00   1.000E+00   1.000E+00   1.000E+00   1.000E+00         -           -           -           -           -           -  
   173          19      4.2312      4.2312      9.0751      C        6.000E-01      -           -        3.500E-02   0.000E+00   0.000E+00           F           F   0.000E+00   1.000E+00      -           -        1.000E+00      -           -        1.000E+00   1.000E+00   1.000E+00   1.000E+00   1.000E+00         -           -           -           -           -           -  
   174          19      4.2005      4.2005     10.0145      C        6.000E-01      -           -        3.500E-02   0.000E+00   0.000E+00           F           F   0.000E+00   1.000E+00      -           -        1.000E+00      -           -        1.000E+00   1.000E+00   1.000E+00   1.000E+00   1.000E+00         -           -           -           -           -           -  
   175          19      4.1697      4.1697     10.9539      C        6.000E-01      -           -        3.500E-02   0.000E+00   0.000E+00           F           F   0.000E+00   1.000E+00      -           -        1.000E+00      -           -        1.000E+00   1.000E+00   1.000E+00   1.000E+00   1.000E+00         -           -           -           -           -           -  
   176          19      4.1390      4.1390     11.8933      C        6.000E-01      -           -        3.500E-02   0.000E+00   0.000E+00           F           F   0.000E+00   1.000E+00      -           -        1.000E+00      -           -        1.000E+00   1.000E+00   1.000E+00   1.000E+00   1.000E+00         -           -           -           -           -           -  
   177          19      4.1082      4.1082     12.8327      C        6.000E-01      -           -        3.500E-02   0.000E+00   0.000E+00           F           F   0.000E+00   1.000E+00      -           -        1.000E+00      -           -        1.000E+00   1.000E+00   1.000E+00   1.000E+00   1.000E+00         -           -           -           -           -           -  
   178          19      4.0775      4.0775     13.7722      C        6.000E-01      -           -        3.500E-02   0.000E+00   0.000E+00           F           F   0.000E+00   1.000E+00      -           -        1.000E+00      -           -        1.000E+00   1.000E+00   1.000E+00   1.000E+00   1.000E+00         -           -           -           -           -           -  
   179          19      4.0468      4.0468     14.7116      C        6.000E-01      -           -        3.500E-02   0.000E+00   0.000E+00           F           F   0.000E+00   1.000E+00      -           -        1.000E+00      -           -        1.000E+00   1.000E+00   1.000E+00   1.000E+00   1.000E+00         -           -           -           -           -           -  
   180          21     -5.3009      5.3009    -23.6332      C        6.000E-01      -           -        3.500E-02   1.000E-01   1.100E+03           F           T   1.009E+03   1.000E+00      -           -        1.000E+00      -           -        1.000E+00   1.000E+00   1.000E+00   1.000E+00   1.000E+00         -           -           -           -           -           -  
   181          21     -5.2689      5.2689    -22.6525      C        6.000E-01      -           -        3.500E-02   1.000E-01   1.100E+03           F           T   1.009E+03   1.000E+00      -           -        1.000E+00      -           -        1.000E+00   1.000E+00   1.000E+00   1.000E+00   1.000E+00         -           -           -           -           -           -  
   182          21     -5.2368      5.2368    -21.6717      C        6.000E-01      -           -        3.500E-02   1.000E-01   1.100E+03           F           T   1.009E+03   1.000E+00      -           -        1.000E+00      -           -        1.000E+00   1.000E+00   1.000E+00   1.000E+00   1.000E+00         -           -           -           -           -           -  
   183          21     -5.2048      5.2048    -20.6910      C        6.000E-01      -           -        3.500E-02   1.000E-01   1.100E+03           F           T   1.009E+03   1.000E+00      -           -        1.000E+00      -           -        1.000E+00   1.000E+00   1.000E+00   1.000E+00   1.000E+00         -           -           -           -           -           -  
   184          21     -5.1727      5.1727    -19.7103      C        6.000E-01      -           -        3.500E-02   1.000E-01   1.100E+03           F           T   1.009E+03   1.000E+00      -           -        1.000E+00      -           -        1.000E+00   1.000E+00   1.000E+00   1.000E+00   1.000E+00         -           -           -           -           -           -  
   185          21     -5.1406      5.1406    -18.7295      C        6.000E-01      -           -        3.500E-02   1.000E-01   1.100E+03           F           T   1.009E+03   1.000E+00      -           -        1.000E+00      -           -        1.000E+00   1.000E+00   1.000E+00   1.000E+00   1.000E+00         -           -           -           -           -           -  
   186          21     -5.1086      5.1086    -17.7488      C        6.000E-01      -           -        3.500E-02   1.000E-01   1.100E+03           F           T   1.009E+03   1.000E+00      -           -        1.000E+00      -           -        1.000E+00   1.000E+00   1.000E+00   1.000E+00   1.000E+00         -           -           -           -           -           -  
   187          21     -5.0765      5.0765    -16.7680      C        6.000E-01      -           -        3.500E-02   1.000E-01   1.100E+03           F           T   1.009E+03   1.000E+00      -           -        1.000E+00      -           -        1.000E+00   1.000E+00   1.000E+00   1.000E+00   1.000E+00         -           -           -           -           -           -  
   188          21     -5.0444      5.0444    -15.7873      C        6.000E-01      -           -        3.500E-02   1.000E-01   1.100E+03           F           T   1.009E+03   1.000E+00      -           -        1.000E+00      -           -        1.000E+00   1.000E+00   1.000E+00   1.000E+00   1.000E+00         -           -           -           -           -           -  
   189          21     -5.0124      5.0124    -14.8065      C        6.000E-01      -           -        3.500E-02   1.000E-01   1.100E+03           F           T   1.009E+03   1.000E+00      -           -        1.000E+00      -           -        1.000E+00   1.000E+00   1.000E+00   1.000E+00   1.000E+00         -           -           -           -           -           -  
   190          21     -4.9803      4.9803    -13.8258      C        6.000E-01      -           -        3.500E-02   1.000E-01   1.100E+03           F           T   1.009E+03   1.000E+00      -           -        1.000E+00      -           -        1.000E+00   1.000E+00   1.000E+00   1.000E+00   1.000E+00         -           -           -           -           -           -  
   191          21     -4.9483      4.9483    -12.8450      C        6.000E-01      -           -        3.500E-02   1.000E-01   1.100E+03           F           T   1.009E+03   1.000E+00      -           -        1.000E+00      -           -        1.000E+00   1.000E+00   1.000E+00   1.000E+00   1.000E+00         -           -           -           -           -           -  
   192          21     -4.9162      4.9162    -11.8643      C        6.000E-01      -           -        3.500E-02   1.000E-01   1.100E+03           F           T   1.009E+03   1.000E+00      -           -        1.000E+00      -           -        1.000E+00   1.000E+00   1.000E+00   1.000E+00   1.000E+00         -           -           -           -           -           -  
   193          21     -4.8841      4.8841    -10.8835      C        6.000E-01      -           -        3.500E-02   1.000E-01   1.100E+03           F           T   1.009E+03   1.000E+00      -           -        1.000E+00      -           -        1.000E+00   1.000E+00   1.000E+00   1.000E+00   1.000E+00         -           -           -           -           -           -  
   194          21     -4.8521      4.8521     -9.9028      C        6.000E-01      -           -        3.500E-02   1.000E-01   1.100E+03           F           T   1.009E+03   1.000E+00      -           -        1.000E+00      -           -        1.000E+00   1.000E+00   1.000E+00   1.000E+00   1.000E+00         -           -           -           -           -           -  
   195          22     -4.7889      4.7889     -7.9720      C        6.000E-01      -           -        3.500E-02   1.000E-01   1.100E+03           F           T   9.776E+02   1.000E+00      -           -        1.000E+00      -           -        1.000E+00   1.000E+00   1.000E+00   1.000E+00   1.000E+00         -           -           -           -           -           -  
   196          22     -4.7579      4.7579     -7.0220      C        6.000E-01      -           -        3.500E-02   1.000E-01   1.100E+03           F           T   9.776E+02   1.000E+00      -           -        1.000E+00      -           -        1.000E+00   1.000E+00   1.000E+00   1.000E+00   1.000E+00         -           -           -           -           -           -  
   197          22     -4.7268      4.7268     -6.0720      C        6.000E-01      -           -        3.500E-02   1.000E-01   1.100E+03           F           T   9.776E+02   1.000E+00      -           -        1.000E+00      -           -        1.000E+00   1.000E+00   1.000E+00   1.000E+00   1.000E+00         -           -           -           -           -           -  
   198          22     -4.6957      4.6957     -5.1220      C        6.000E-01      -           -        3.500E-02   1.000E-01   1.100E+03           F           T   9.776E+02   1.000E+00      -           -        1.000E+00      -           -        1.000E+00   1.000E+00   1.000E+00   1.000E+00   1.000E+00         -           -           -           -           -           -  
   199          22     -4.6646      4.6646     -4.1720      C        6.000E-01      -           -        3.500E-02   1.000E-01   1.100E+03           F           T   9.776E+02   1.000E+00      -           -        1.000E+00      -           -        1.000E+00   1.000E+00   1.000E+00   1.000E+00   1.000E+00         -           -           -           -           -           -  
   200          22     -4.6336      4.6336     -3.2220      C        6.000E-01      -           -        3.500E-02   1.000E-01   1.100E+03           F           T   9.776E+02   1.000E+00      -           -        1.000E+00      -           -        1.000E+00   1.000E+00   1.000E+00   1.000E+00   1.000E+00         -           -           -           -           -           -  
   201          22     -4.6025      4.6025     -2.2720      C        6.000E-01      -           -        3.500E-02   1.000E-01   1.100E+03           F           T   9.776E+02   1.000E+00      -           -        1.000E+00      -           -        1.000E+00   1.000E+00   1.000E+00   1.000E+00   1.000E+00         -           -           -           -           -           -  
   202          22     -4.5714      4.5714     -1.3220      C        6.000E-01      -           -        3.500E-02   0.000E+00   0.000E+00           F           T   9.776E+02   1.000E+00      -           -        1.000E+00      -           -        1.000E+00   1.000E+00   1.000E+00   1.000E+00   1.000E+00         -           -           -           -           -           -  
   203          22     -4.5404      4.5404     -0.3720      C        6.000E-01      -           -        3.500E-02   0.000E+00   0.000E+00           F           T   3.824E+02   1.000E+00      -           -        1.000E+00      -           -        1.000E+00   1.000E+00   1.000E+00   1.000E+00   1.000E+00         -           -           -           -           -           -  
[...]
       84      48      34   7.70818E+00             8   3.87455E+00   0.00000E+00   4.00000E-01       -             -         2.00000E-02   4.00000E-01       -             -         2.00000E-02             F             F   0.00000E+00   0.00000E+00   0.00000E+00   1.00000E+00       -             -         1.00000E+00       -             -         1.00000E+00   1.00000E+00   1.00000E+00   1.00000E+00   1.00000E+00   0.00000E+00   1.00000E+00   1.00000E+00   1.00000E+00       -             -         1.00000E+00       -             -         1.00000E+00   1.00000E+00   1.00000E+00   1.00000E+00   1.00000E+00   0.00000E+00   1.00000E+00   1.00000E+00
       85      22      49   7.34075E+00             8   3.68986E+00   0.00000E+00   4.00000E-01       -             -         2.00000E-02   4.00000E-01       -             -         2.00000E-02             F             F   0.00000E+00   0.00000E+00   0.00000E+00   1.00000E+00       -             -         1.00000E+00       -             -         1.00000E+00   1.00000E+00   1.00000E+00   1.00000E+00   1.00000E+00   0.00000E+00   1.00000E+00   1.00000E+00   1.00000E+00       -             -         1.00000E+00       -             -         1.00000E+00   1.00000E+00   1.00000E+00   1.00000E+00   1.00000E+00   0.00000E+00   1.00000E+00   1.00000E+00
       86      49      35   6.72316E+00             7   3.37943E+00   0.00000E+00   4.00000E-01       -             -         2.00000E-02   4.00000E-01       -             -         2.00000E-02             F             F   0.00000E+00   0.00000E+00   0.00000E+00   1.00000E+00       -             -         1.00000E+00       -             -         1.00000E+00   1.00000E+00   1.00000E+00   1.00000E+00   1.00000E+00   0.00000E+00   1.00000E+00   1.00000E+00   1.00000E+00       -             -         1.00000E+00       -             -         1.00000E+00   1.00000E+00   1.00000E+00   1.00000E+00   1.00000E+00   0.00000E+00   1.00000E+00   1.00000E+00
       87      34      49   7.34075E+00             8   3.68986E+00   0.00000E+00   4.00000E-01       -             -         2.00000E-02   4.00000E-01       -             -         2.00000E-02             F             F   0.00000E+00   0.00000E+00   0.00000E+00   1.00000E+00       -             -         1.00000E+00       -             -         1.00000E+00   1.00000E+00   1.00000E+00   1.00000E+00   1.00000E+00   0.00000E+00   1.00000E+00   1.00000E+00   1.00000E+00       -             -         1.00000E+00       -             -         1.00000E+00   1.00000E+00   1.00000E+00   1.00000E+00   1.00000E+00   0.00000E+00   1.00000E+00   1.00000E+00
       88      49      23   6.72316E+00             7   3.37943E+00   0.00000E+00   4.00000E-01       -             -         2.00000E-02   4.00000E-01       -             -         2.00000E-02             F             F   0.00000E+00   0.00000E+00   0.00000E+00   1.00000E+00       -             -         1.00000E+00       -             -         1.00000E+00   1.00000E+00   1.00000E+00   1.00000E+00   1.00000E+00   0.00000E+00   1.00000E+00   1.00000E+00   1.00000E+00       -             -         1.00000E+00       -             -         1.00000E+00   1.00000E+00   1.00000E+00   1.00000E+00   1.00000E+00   0.00000E+00   1.00000E+00   1.00000E+00
       89      26      50   7.34075E+00             8   3.68986E+00   0.00000E+00   4.00000E-01       -             -         2.00000E-02   4.00000E-01       -             -         2.00000E-02             F             F   0.00000E+00   0.00000E+00   0.00000E+00   1.00000E+00       -             -         1.00000E+00       -             -         1.00000E+00   1.00000E+00   1.00000E+00   1.00000E+00   1.00000E+00   0.00000E+00   1.00000E+00   1.00000E+00   1.00000E+00       -             -         1.00000E+00       -             -         1.00000E+00   1.00000E+00   1.00000E+00   1.00000E+00   1.00000E+00   0.00000E+00   1.00000E+00   1.00000E+00
       90      50      31   6.72316E+00             7   3.37943E+00   0.00000E+00   4.00000E-01       -             -         2.00000E-02   4.00000E-01       -             -         2.00000E-02             F             F   0.00000E+00   0.00000E+00   0.00000E+00   1.00000E+00       -             -         1.00000E+00       -             -         1.00000E+00   1.00000E+00   1.00000E+00   1.00000E+00   1.00000E+00   0.00000E+00   1.00000E+00   1.00000E+00   1.00000E+00       -             -         1.00000E+00       -             -         1.00000E+00   1.00000E+00   1.00000E+00   1.00000E+00   1.00000E+00   0.00000E+00   1.00000E+00   1.00000E+00
       91      30      50   7.34075E+00             8   3.68986E+00   0.00000E+00   4.00000E-01       -             -         2.00000E-02   4.00000E-01       -             -         2.00000E-02             F             F   0.00000E+00   0.00000E+00   0.00000E+00   1.00000E+00       -             -         1.00000E+00       -             -         1.00000E+00   1.00000E+00   1.00000E+00   1.00000E+00   1.00000E+00   0.00000E+00   1.00000E+00   1.00000E+00   1.00000E+00       -             -         1.00000E+00       -             -         1.00000E+00   1.00000E+00   1.00000E+00   1.00000E+00   1.00000E+00   0.00000E+00   1.00000E+00   1.00000E+00
       92      50      27   6.72316E+00             7   3.37943E+00   0.00000E+00   4.00000E-01       -             -         2.00000E-02   4.00000E-01       -             -         2.00000E-02             F             F   0.00000E+00   0.00000E+00   0.00000E+00   1.00000E+00       -             -         1.00000E+00       -             -         1.00000E+00   1.00000E+00   1.00000E+00   1.00000E+00   1.00000E+00   0.00000E+00   1.00000E+00   1.00000E+00   1.00000E+00       -             -         1.00000E+00       -             -         1.00000E+00   1.00000E+00   1.00000E+00   1.00000E+00   1.00000E+00   0.00000E+00   1.00000E+00   1.00000E+00
       93      22      51   7.34075E+00             8   3.68986E+00   0.00000E+00   4.00000E-01       -             -         2.00000E-02   4.00000E-01       -             -         2.00000E-02             F             F   0.00000E+00   0.00000E+00   0.00000E+00   1.00000E+00       -             -         1.00000E+00       -             -         1.00000E+00   1.00000E+00   1.00000E+00   1.00000E+00   1.00000E+00   0.00000E+00   1.00000E+00   1.00000E+00   1.00000E+00       -             -         1.00000E+00       -             -         1.00000E+00   1.00000E+00   1.00000E+00   1.00000E+00   1.00000E+00   0.00000E+00   1.00000E+00   1.00000E+00
       94      51      27   6.72316E+00             7   3.37943E+00   0.00000E+00   4.00000E-01       -             -         2.00000E-02   4.00000E-01       -             -         2.00000E-02             F             F   0.00000E+00   0.00000E+00   0.00000E+00   1.00000E+00       -             -         1.00000E+00       -             -         1.00000E+00   1.00000E+00   1.00000E+00   1.00000E+00   1.00000E+00   0.00000E+00   1.00000E+00   1.00000E+00   1.00000E+00       -             -         1.00000E+00       -             -         1.00000E+00   1.00000E+00   1.00000E+00   1.00000E+00   1.00000E+00   0.00000E+00   1.00000E+00   1.00000E+00
       95      26      51   7.34075E+00             8   3.68986E+00   0.00000E+00   4.00000E-01       -             -         2.00000E-02   4.00000E-01       -             -         2.00000E-02             F             F   0.00000E+00   0.00000E+00   0.00000E+00   1.00000E+00       -             -         1.00000E+00       -             -         1.00000E+00   1.00000E+00   1.00000E+00   1.00000E+00   1.00000E+00   0.00000E+00   1.00000E+00   1.00000E+00   1.00000E+00       -             -         1.00000E+00       -             -         1.00000E+00   1.00000E+00   1.00000E+00   1.00000E+00   1.00000E+00   0.00000E+00   1.00000E+00   1.00000E+00
       96      51      23   6.72316E+00             7   3.37943E+00   0.00000E+00   4.00000E-01       -             -         2.00000E-02   4.00000E-01       -             -         2.00000E-02             F             F   0.00000E+00   0.00000E+00   0.00000E+00   1.00000E+00       -             -         1.00000E+00       -             -         1.00000E+00   1.00000E+00   1.00000E+00   1.00000E+00   1.00000E+00   0.00000E+00   1.00000E+00   1.00000E+00   1.00000E+00       -             -         1.00000E+00       -             -         1.00000E+00   1.00000E+00   1.00000E+00   1.00000E+00   1.00000E+00   0.00000E+00   1.00000E+00   1.00000E+00
       97      34      52   7.34075E+00             8   3.68986E+00   0.00000E+00   4.00000E-01       -             -         2.00000E-02   4.00000E-01       -             -         2.00000E-02             F             F   0.00000E+00   0.00000E+00   0.00000E+00   1.00000E+00       -             -         1.00000E+00       -             -         1.00000E+00   1.00000E+00   1.00000E+00   1.00000E+00   1.00000E+00   0.00000E+00   1.00000E+00   1.00000E+00   1.00000E+00       -             -         1.00000E+00       -             -         1.00000E+00   1.00000E+00   1.00000E+00   1.00000E+00   1.00000E+00   0.00000E+00   1.00000E+00   1.00000E+00
       98      52      31   6.72316E+00             7   3.37943E+00   0.00000E+00   4.00000E-01       -             -         2.00000E-02   4.00000E-01       -             -         2.00000E-02             F             F   0.00000E+00   0.00000E+00   0.00000E+00   1.00000E+00       -             -         1.00000E+00       -             -         1.00000E+00   1.00000E+00   1.00000E+00   1.00000E+00   1.00000E+00   0.00000E+00   1.00000E+00   1.00000E+00   1.00000E+00       -             -         1.00000E+00       -             -         1.00000E+00   1.00000E+00   1.00000E+00   1.00000E+00   1.00000E+00   0.00000E+00   1.00000E+00   1.00000E+00
       99      30      52   7.34075E+00             8   3.68986E+00   0.00000E+00   4.00000E-01       -             -         2.00000E-02   4.00000E-01       -             -         2.00000E-02             F             F   0.00000E+00   0.00000E+00   0.00000E+00   1.00000E+00       -             -         1.00000E+00       -             -         1.00000E+00   1.00000E+00   1.00000E+00   1.00000E+00   1.00000E+00   0.00000E+00   1.00000E+00   1.00000E+00   1.00000E+00       -             -         1.00000E+00       -             -         1.00000E+00   1.00000E+00   1.00000E+00   1.00000E+00   1.00000E+00   0.00000E+00   1.00000E+00   1.00000E+00
      100      52      35   6.72316E+00             7   3.37943E+00   0.00000E+00   4.00000E-01       -             -         2.00000E-02   4.00000E-01       -             -         2.00000E-02             F             F   0.00000E+00   0.00000E+00   0.00000E+00   1.00000E+00       -             -         1.00000E+00       -             -         1.00000E+00   1.00000E+00   1.00000E+00   1.00000E+00   1.00000E+00   0.00000E+00   1.00000E+00   1.00000E+00   1.00000E+00       -             -         1.00000E+00       -             -         1.00000E+00   1.00000E+00   1.00000E+00   1.00000E+00   1.00000E+00   0.00000E+00   1.00000E+00   1.00000E+00
      101      24      53   4.00000E+00             4   4.52389E+00   0.00000E+00   6.00000E-01       -             -         4.00000E-02   6.00000E-01       -             -         4.00000E-02             F             F   0.00000E+00   0.00000E+00   0.00000E+00   1.00000E+00       -             -         1.00000E+00       -             -         1.00000E+00   1.00000E+00   1.00000E+00   1.00000E+00   1.00000E+00   0.00000E+00   1.00000E+00   1.00000E+00   1.00000E+00       -             -         1.00000E+00       -             -         1.00000E+00   1.00000E+00   1.00000E+00   1.00000E+00   1.00000E+00   0.00000E+00   1.00000E+00   1.00000E+00
      102      28      54   4.00000E+00             4   4.52389E+00   0.00000E+00   6.00000E-01       -             -         4.00000E-02   6.00000E-01       -             -         4.00000E-02             F             F   0.00000E+00   0.00000E+00   0.00000E+00   1.00000E+00       -             -         1.00000E+00       -             -         1.00000E+00   1.00000E+00   1.00000E+00   1.00000E+00   1.00000E+00   0.00000E+00   1.00000E+00   1.00000E+00   1.00000E+00       -             -         1.00000E+00       -             -         1.00000E+00   1.00000E+00   1.00000E+00   1.00000E+00   1.00000E+00   0.00000E+00   1.00000E+00   1.00000E+00
      103      32      56   4.00000E+00             4   4.52389E+00   0.00000E+00   6.00000E-01       -             -         4.00000E-02   6.00000E-01       -             -         4.00000E-02             F             F   0.00000E+00   0.00000E+00   0.00000E+00   1.00000E+00       -             -         1.00000E+00       -             -         1.00000E+00   1.00000E+00   1.00000E+00   1.00000E+00   1.00000E+00   0.00000E+00   1.00000E+00   1.00000E+00   1.00000E+00       -             -         1.00000E+00       -             -         1.00000E+00   1.00000E+00   1.00000E+00   1.00000E+00   1.00000E+00   0.00000E+00   1.00000E+00   1.00000E+00
      104      36      55   4.00000E+00             4   4.52389E+00   0.00000E+00   6.00000E-01       -             -         4.00000E-02   6.00000E-01       -             -         4.00000E-02             F             F   0.00000E+00   0.00000E+00   0.00000E+00   1.00000E+00       -             -         1.00000E+00       -             -         1.00000E+00   1.00000E+00   1.00000E+00   1.00000E+00   1.00000E+00   0.00000E+00   1.00000E+00   1.00000E+00   1.00000E+00       -             -         1.00000E+00       -             -         1.00000E+00   1.00000E+00   1.00000E+00   1.00000E+00   1.00000E+00   0.00000E+00   1.00000E+00   1.00000E+00
      105      58       1   4.00000E+00             4   1.36179E+01   0.00000E+00   1.04100E+00       -             -         4.91000E-01   1.04100E+00       -             -         4.91000E-01             F             T   1.02500E+03   0.00000E+00   3.89636E+03   1.00000E+00       -             -         1.00000E+00       -             -         1.00000E+00   1.00000E+00   1.00000E+00   1.00000E+00   1.00000E+00   0.00000E+00   1.00000E+00   1.00000E+00   1.00000E+00       -             -         1.00000E+00       -             -         1.00000E+00   1.00000E+00   1.00000E+00   1.00000E+00   1.00000E+00   0.00000E+00   1.00000E+00   1.00000E+00
      106      57      16   4.00000E+00             4   1.36179E+01   0.00000E+00   1.04100E+00       -             -         4.91000E-01   1.04100E+00       -             -         4.91000E-01             F             T   1.02500E+03   0.00000E+00   3.89636E+03   1.00000E+00       -             -         1.00000E+00       -             -         1.00000E+00   1.00000E+00   1.00000E+00   1.00000E+00   1.00000E+00   0.00000E+00   1.00000E+00   1.00000E+00   1.00000E+00       -             -         1.00000E+00       -             -         1.00000E+00   1.00000E+00   1.00000E+00   1.00000E+00   1.00000E+00   0.00000E+00   1.00000E+00   1.00000E+00
      107      60       6   4.00000E+00             4   1.36179E+01   0.00000E+00   1.04100E+00       -             -         4.91000E-01   1.04100E+00       -             -         4.91000E-01             F             T   1.02500E+03   0.00000E+00   3.89636E+03   1.00000E+00       -             -         1.00000E+00       -             -         1.00000E+00   1.00000E+00   1.00000E+00   1.00000E+00   1.00000E+00   0.00000E+00   1.00000E+00   1.00000E+00   1.00000E+00       -             -         1.00000E+00       -             -         1.00000E+00   1.00000E+00   1.00000E+00   1.00000E+00   1.00000E+00   0.00000E+00   1.00000E+00   1.00000E+00
      108      59      11   4.00000E+00             4   1.36179E+01   0.00000E+00   1.04100E+00       -             -         4.91000E-01   1.04100E+00       -             -         4.91000E-01             F             T   1.02500E+03   0.00000E+00   3.89636E+03   1.00000E+00       -             -         1.00000E+00       -             -         1.00000E+00   1.00000E+00   1.00000E+00   1.00000E+00   1.00000E+00   0.00000E+00   1.00000E+00   1.00000E+00   1.00000E+00       -             -         1.00000E+00       -             -         1.00000E+00   1.00000E+00   1.00000E+00   1.00000E+00   1.00000E+00   0.00000E+00   1.00000E+00   1.00000E+00
      109      62      58   5.00999E-01             1   1.70224E+00   0.00000E+00   1.04100E+00       -             -         6.00000E-02   1.04100E+00       -             -         6.00000E-02             F             T   1.02500E+03   0.00000E+00   1.54947E+03   1.00000E+00       -             -         1.00000E+00       -             -         1.00000E+00   1.00000E+00   1.00000E+00   1.00000E+00   1.00000E+00   0.00000E+00   1.00000E+00   1.00000E+00   1.00000E+00       -             -         1.00000E+00       -             -         1.00000E+00   1.00000E+00   1.00000E+00   1.00000E+00   1.00000E+00   0.00000E+00   1.00000E+00   1.00000E+00
      110      61      57   5.00999E-01             1   1.70224E+00   0.00000E+00   1.04100E+00       -             -         6.00000E-02   1.04100E+00       -             -         6.00000E-02             F             T   1.02500E+03   0.00000E+00   1.54947E+03   1.00000E+00       -             -         1.00000E+00       -             -         1.00000E+00   1.00000E+00   1.00000E+00   1.00000E+00   1.00000E+00   0.00000E+00   1.00000E+00   1.00000E+00   1.00000E+00       -             -         1.00000E+00       -             -         1.00000E+00   1.00000E+00   1.00000E+00   1.00000E+00   1.00000E+00   0.00000E+00   1.00000E+00   1.00000E+00
      111      64      60   5.00999E-01             1   1.70224E+00   0.00000E+00   1.04100E+00       -             -         6.00000E-02   1.04100E+00       -             -         6.00000E-02             F             T   1.02500E+03   0.00000E+00   1.54947E+03   1.00000E+00       -             -         1.00000E+00       -             -         1.00000E+00   1.00000E+00   1.00000E+00   1.00000E+00   1.00000E+00   0.00000E+00   1.00000E+00   1.00000E+00   1.00000E+00       -             -         1.00000E+00       -             -         1.00000E+00   1.00000E+00   1.00000E+00   1.00000E+00   1.00000E+00   0.00000E+00   1.00000E+00   1.00000E+00
      112      63      59   5.00999E-01             1   1.70224E+00   0.00000E+00   1.04100E+00       -             -         6.00000E-02   1.04100E+00       -             -         6.00000E-02             F             T   1.02500E+03   0.00000E+00   1.54947E+03   1.00000E+00       -             -         1.00000E+00       -             -         1.00000E+00   1.00000E+00   1.00000E+00   1.00000E+00   1.00000E+00   0.00000E+00   1.00000E+00   1.00000E+00   1.00000E+00       -             -         1.00000E+00       -             -         1.00000E+00   1.00000E+00   1.00000E+00   1.00000E+00   1.00000E+00   0.00000E+00   1.00000E+00   1.00000E+00



Requested Member Outputs


   Label         Xi          Yi          Zi       MemberID    StartXi     StartYi     StartZi      EndXi       EndYi       EndZi        Loc    
    (-)          (m)         (m)         (m)        (-)         (m)         (m)         (m)         (m)         (m)         (m)         (-)    



 Requested Joint Outputs


   Label         Xi          Yi          Zi      InpJointID
    (-)          (m)         (m)         (m)        (-)    

This summary file was closed on 03-Jul-2025 at 09:09:16.

